Version 4
SHEET 1 1856 684
WIRE -400 -416 -416 -416
WIRE -96 -416 -400 -416
WIRE 256 -416 -96 -416
WIRE 640 -416 256 -416
WIRE 944 -416 640 -416
WIRE -96 -384 -96 -416
WIRE -96 -384 -192 -384
WIRE 256 -368 256 -416
WIRE 384 -368 256 -368
WIRE -96 -352 -96 -384
WIRE 256 -352 256 -368
WIRE 32 -336 -32 -336
WIRE 208 -336 32 -336
WIRE -192 -304 -192 -384
WIRE -96 -304 -192 -304
WIRE 384 -304 384 -368
WIRE 384 -304 256 -304
WIRE 640 -272 640 -416
WIRE 752 -272 640 -272
WIRE -96 -240 -96 -256
WIRE 32 -240 32 -336
WIRE 32 -240 -96 -240
WIRE 944 -240 944 -416
WIRE -400 -224 -400 -416
WIRE 640 -224 640 -272
WIRE 256 -208 256 -256
WIRE 256 -208 176 -208
WIRE 368 -208 256 -208
WIRE 592 -208 368 -208
WIRE -96 -192 -96 -240
WIRE -48 -192 -96 -192
WIRE -96 -176 -96 -192
WIRE 752 -176 752 -272
WIRE 752 -176 640 -176
WIRE 256 -160 256 -208
WIRE 256 -144 256 -160
WIRE -16 -128 -96 -128
WIRE 368 -128 368 -208
WIRE 432 -128 368 -128
WIRE 256 -112 128 -112
WIRE -144 -96 -256 -96
WIRE 640 -96 640 -128
WIRE 752 -96 640 -96
WIRE 816 -96 752 -96
WIRE 400 -80 304 -80
WIRE -96 -64 -96 -80
WIRE -16 -64 -16 -128
WIRE -16 -64 -96 -64
WIRE 752 -64 752 -96
WIRE 944 -64 944 -160
WIRE 128 -48 128 -112
WIRE 256 -48 256 -64
WIRE 256 -48 128 -48
WIRE 496 -48 496 -128
WIRE 640 -48 640 -96
WIRE 640 -48 496 -48
WIRE -256 0 -256 -96
WIRE -96 16 -96 -64
WIRE 16 16 -96 16
WIRE 256 16 256 -48
WIRE 256 16 16 16
WIRE 400 16 400 -80
WIRE 16 48 16 16
WIRE 144 96 16 96
WIRE -32 128 -80 128
WIRE -256 160 -256 80
WIRE 400 176 400 96
WIRE 16 192 16 144
WIRE 144 192 144 96
WIRE 144 192 16 192
WIRE 16 240 16 192
WIRE -400 272 -400 -144
WIRE -256 272 -400 272
WIRE 640 288 640 -48
WIRE 656 288 640 288
WIRE -400 304 -400 272
WIRE -400 320 -400 304
WIRE 784 336 656 336
WIRE -400 352 -496 352
WIRE -256 400 -256 272
WIRE -256 400 -352 400
WIRE -80 400 -80 128
WIRE -80 400 -256 400
WIRE 608 400 608 368
WIRE 608 400 -80 400
WIRE 656 416 656 384
WIRE 784 416 784 336
WIRE 784 416 656 416
WIRE -496 432 -496 352
WIRE -400 432 -400 400
WIRE -400 432 -496 432
WIRE 656 464 656 416
WIRE -400 496 -400 432
FLAG -256 160 0
FLAG 400 176 0
FLAG 944 -64 0
FLAG 752 0 0
FLAG 656 464 0
FLAG -400 496 0
FLAG 16 240 0
FLAG 816 -96 Vout
FLAG 16 16 6
FLAG -48 -192 2
FLAG 176 -208 5
SYMBOL voltage 944 -256 R0
WINDOW 123 0 0 Left 0
WINDOW 39 0 0 Left 0
SYMATTR InstName V1
SYMATTR Value 3.3
SYMBOL voltage -256 -16 M0
WINDOW 123 24 124 Left 2
WINDOW 39 0 0 Left 0
SYMATTR Value2 AC 0.01v
SYMATTR InstName Vin1
SYMATTR Value SINE(0 5m 1khz)
SYMBOL voltage 400 0 R0
WINDOW 123 24 124 Left 2
WINDOW 39 0 0 Left 0
SYMATTR Value2 AC -0.01v
SYMATTR InstName Vin2
SYMATTR Value SINE(0 -5m 1khz)
SYMBOL cap 736 -64 R0
SYMATTR InstName CL
SYMATTR Value 100p
SYMBOL cap 496 -144 R90
WINDOW 0 0 32 VBottom 2
WINDOW 3 32 32 VTop 2
SYMATTR InstName C2
SYMATTR Value 63.66p
SYMBOL current -400 -224 R0
WINDOW 123 0 0 Left 0
WINDOW 39 0 0 Left 0
SYMATTR InstName I1
SYMATTR Value 24µ
SYMBOL nmos4 -32 48 R0
SYMATTR InstName M5
SYMBOL nmos4 -144 -176 R0
SYMATTR InstName M1
SYMBOL nmos4 608 288 R0
SYMATTR InstName M7
SYMBOL nmos4 304 -160 M0
SYMATTR InstName M2
SYMBOL nmos4 -352 304 M0
SYMATTR InstName M8
SYMBOL pmos4 -48 -256 R180
SYMATTR InstName M3
SYMBOL pmos4 208 -256 M180
SYMATTR InstName M4
SYMBOL pmos4 592 -128 M180
SYMATTR InstName M6
TEXT 1112 448 Left 2 !.model NMOS NMOS(kp=100u vt0=0.4 lambda=0.011)\n.model PMOS PMOS(kp=50u vt0=-0.4 lambda=0.052)
TEXT -552 520 Left 2 !.tran 5m
